# https://raw.githubusercontent.com/aiidateam/acwf-verification-scripts/main/0-preliminary-do-not-run/unaries/xsfs-unaries-verification-PBE-v1/Li-BCC.xsf
CRYSTAL
PRIMVEC
 -1.71752136858989 1.71752136858989 1.71752136858989
 1.71752136858989 -1.71752136858989 1.71752136858989
 1.71752136858989 1.71752136858989 -1.71752136858989
PRIMCOORD
 1 1
  3     0.00000000000000     0.00000000000000     0.00000000000000
