# https://raw.githubusercontent.com/aiidateam/acwf-verification-scripts/main/0-preliminary-do-not-run/oxides/xsfs-oxides-verification-PBE-v1/Li-XO.xsf
CRYSTAL
# Primitive lattice vectors in Angstrom
PRIMVEC
 2.49103770094088 0.00000000000000 1.43820128719972
 0.83034590031363 2.34857286736886 1.43820128719972
 0.00000000000000 0.00000000000000 2.87640257439945
# Cartesian coordinates in Angstrom.
PRIMCOORD
 2 1
3     0.00000000000000     0.00000000000000     0.00000000000000
8     1.66069180062725     1.17428643368443     2.87640257439945